units		    real
atom_style	    full
boundary        p p p
pair_style	    lj/cut/coul/long 12.0
pair_modify     mix arithmetic tail yes   # Geometric for EPM2
kspace_style    pppm 1e-6
bond_style      harmonic
angle_style     harmonic

read_data       ./data.lmp           # read the positions --------------comment it out for restarting
Reading data file ...
  orthogonal box = (0 0 0) to (54.078336 54.078336 54.078336)
  reading atoms ...
  6000 atoms
  scanning bonds ...
  scanning angles ...
  reading bonds ...
  4000 bonds
  reading angles ...
  2000 angles
Finding 1-2 1-3 1-4 neighbors ...
     2 = max # of 1-2 neighbors
     1 = max # of 1-3 neighbors
     1 = max # of 1-4 neighbors
     2 = max # of special neighbors
#read_restart   2.restart

#----------------------------------------------------------------------------#
# FORCEFIELD - TraPPE Flexible model for CO2 (DOI- 10.1021/acs.jced.9b00006)
#----------------------------------------------------------------------------#

pair_coeff      1   1  0.1569891239   3.05             # [O]=C=O
pair_coeff      2   2  0.0536545107   2.8              # O=[C]=O

bond_coeff      1   1028.266  1.16

angle_coeff     1   55.96  180

mass            1   15.9994                       # O
mass            2   12.0107                       # C

set type        1   charge     -0.3500            # O
Setting atom values ...
  4000 settings made for charge
set type        2   charge     +0.7000            # C
Setting atom values ...
  2000 settings made for charge

#------------------------ VARIABLES------------------------------------------#

variable  TEMP_INDEX       equal 300  # in K
variable  PRESS_INDEX      equal 200  # in bar
variable  RandomSeed       equal 5000  # RANDOM SEED
variable  nz_layers        equal 20
variable  nx_layers        equal 3
variable  timestep         equal 0.5

variable  simulationTemp   equal 300
variable  pressure         equal 0.987*200

variable  Ninptpre         equal 100000
variable  Ninpt            equal 1000000
variable  Npnpt            equal 2000000

variable  equi_run         equal 1000000           #500000
variable  npt_run          equal 10000000           #5000000
variable  NBR              equal 10000000/100

variable  Density          equal density
variable  Volume           equal vol

variable  dumpfreq         equal 1000
variable  thermofreq       equal 1000
variable  printfreq        equal 1000
variable  restartfreq      equal 1000000

variable  NVT_init         equal 500000
variable  NVE_reshape      equal 10000
variable  NVT_run_2        equal 500000
variable  NVE_cuboid       equal 500000

variable  thermo_num       equal 1000

#---------------------------- GROUPS/NEIGHBOUR - LIST -----------------------------------------------------------------------#

group           oxy  type 1
4000 atoms in group oxy
group           carb type 2
2000 atoms in group carb

neighbor	    3.0 bin
neigh_modify    every 1 delay 0 check yes
run_style       verlet

#---------------------------- CONGUGATE-GRADIENT MINIMIZATION --------------------------------------------------------#

#minimize energytolerance forcetolerance max_iterations_of_minimizer max_number_of_force_or_energy_evaluations
minimize        1e-6 1e-8 100000 10000000
PPPM initialization ...
  G vector (1/distance) = 0.2685318
  grid = 50 50 50
  stencil order = 5
  estimated absolute RMS force accuracy = 0.00039779035
  estimated relative force accuracy = 1.1979338e-06
  3d grid and FFT values/proc = 12500 5000
Generated 1 of 1 mixed pair_coeff terms from arithmetic mixing rule
Step          Temp          E_pair         E_mol          TotEng         Press
0   0             -1749.2664      6.7077778e-05 -1749.2663      6898.5058
Loop time of 34.9992 on 36 procs for 3055 steps with 6000 atoms

Minimization stats:
  Stopping criterion = energy tolerance
  Energy initial, next-to-last, final =
  Force two-norm initial, final = 491.70788 8.3747351
  Force max component initial, final = 16.85498 0.77541919
  Final line search alpha, max atom move = 0.021412623 0.016603758
  Iterations, force evaluations = 3055 6072

#---------------------------- NPT simulations  ---------------------------------------------------------------------#

fix runnpt all npt temp 300 300 10 iso 197.4 197.4 100

compute theta       all     angle/local   theta
compute length      all     bond/local    dist

compute theta_ave   all     reduce        ave       c_theta
compute length_ave  all     reduce        ave       c_length

thermo_style custom step pe ke etotal press temp c_theta_ave c_length_ave v_Density
thermo_modify flush yes
thermo 1000

velocity	    all create 300 5000 mom yes rot yes dist gaussian

#-----------------------
# Run (Pre-Initialization)
#-----------------------

timestep    0.1
run         100000
PPPM initialization ...
  G vector (1/distance) = 0.2685318
  grid = 50 50 50
  stencil order = 5
  estimated absolute RMS force accuracy = 0.00039779035
  estimated relative force accuracy = 1.1979338e-06
  3d grid and FFT values/proc = 12500 5000
Generated 1 of 1 mixed pair_coeff terms from arithmetic mixing rule
Step         PotEng         KinEng         TotEng         Press           Temp       c_theta_ave    c_length_ave    v_Density
3055  -9852.9462      5364.5638     -4488.3823      1244.7905      300            179.42011      1.1608407      0.9241778
Averages over the last 51 of 102 rows, steps 54000 to 103055:
PotEng KinEng TotEng Press Temp c_theta_ave c_length_ave v_Density
-2555.48 5363.88 2808.4 191.947 299.962 174.818 1.16062 0.883581
Loop time of 499.827 on 36 procs for 100000 steps with 6000 atoms

timestep    0.2
run         100000
PPPM initialization ...
  G vector (1/distance) = 0.26781521
  grid = 50 50 50
  stencil order = 5
  estimated absolute RMS force accuracy = 0.00041316053
  estimated relative force accuracy = 1.2442207e-06
  3d grid and FFT values/proc = 12500 5000
Generated 1 of 1 mixed pair_coeff terms from arithmetic mixing rule
Step         PotEng         KinEng         TotEng         Press           Temp       c_theta_ave    c_length_ave    v_Density
103055  -2569.8406      5436.2177      2866.3771      269.44201      304.00707      174.86723      1.1606081      0.88798735
Averages over the last 51 of 102 rows, steps 154000 to 203055:
PotEng KinEng TotEng Press Temp c_theta_ave c_length_ave v_Density
-2547.22 5354 2806.77 192.339 299.409 174.784 1.16062 0.907767
Loop time of 485.175 on 36 procs for 100000 steps with 6000 atoms

timestep    0.25
run         100000
PPPM initialization ...
  G vector (1/distance) = 0.26837399
  grid = 50 50 50
  stencil order = 5
  estimated absolute RMS force accuracy = 0.00040113985
  estimated relative force accuracy = 1.2080208e-06
  3d grid and FFT values/proc = 12500 5000
Generated 1 of 1 mixed pair_coeff terms from arithmetic mixing rule
Step         PotEng         KinEng         TotEng         Press           Temp       c_theta_ave    c_length_ave    v_Density
203055  -2573.5909      5286.273       2712.682       291.84945      295.62178      174.82743      1.1605644      0.91601248
Averages over the last 51 of 102 rows, steps 254000 to 303055:
PotEng KinEng TotEng Press Temp c_theta_ave c_length_ave v_Density
-2507.5 5377.64 2870.14 172.274 300.731 174.744 1.16064 0.903574
Loop time of 484.658 on 36 procs for 100000 steps with 6000 atoms

timestep    0.5
run         100000
PPPM initialization ...
  G vector (1/distance) = 0.26819225
  grid = 50 50 50
  stencil order = 5
  estimated absolute RMS force accuracy = 0.00040502176
  estimated relative force accuracy = 1.219711e-06
  3d grid and FFT values/proc = 12500 5000
Generated 1 of 1 mixed pair_coeff terms from arithmetic mixing rule
Step         PotEng         KinEng         TotEng         Press           Temp       c_theta_ave    c_length_ave    v_Density
303055  -2559.956       5312.2404      2752.2844      88.571882      297.07394      174.74702      1.1606408      0.90674834
Averages over the last 51 of 102 rows, steps 354000 to 403055:
PotEng KinEng TotEng Press Temp c_theta_ave c_length_ave v_Density
-2533.07 5353.81 2820.74 165.864 299.399 174.727 1.16063 0.90878
Loop time of 483.718 on 36 procs for 100000 steps with 6000 atoms

#-----------------------
# Run (Initialization)
#-----------------------

unfix       runnpt
reset_timestep 0

fix runnpt all npt temp 300 300 100 iso 197.4 197.4 1000

timestep    0.5
run         1000000
PPPM initialization ...
  G vector (1/distance) = 0.26805434
  grid = 50 50 50
  stencil order = 5
  estimated absolute RMS force accuracy = 0.00040798542
  estimated relative force accuracy = 1.228636e-06
  3d grid and FFT values/proc = 12500 5000
Generated 1 of 1 mixed pair_coeff terms from arithmetic mixing rule
Step         PotEng         KinEng         TotEng         Press           Temp       c_theta_ave    c_length_ave    v_Density
0  -2390.8396      5412.8168      3021.9772     -143.47007      302.69843      174.64787      1.1608892      0.899815
Averages over the last 501 of 1001 rows, steps 500000 to 1000000:
PotEng KinEng TotEng Press Temp c_theta_ave c_length_ave v_Density
-2531.64 5358.27 2826.64 191.138 299.648 174.726 1.16062 0.905414
Loop time of 4776.18 on 36 procs for 1000000 steps with 6000 atoms

unfix       runnpt
reset_timestep 0

#-------------------------------------------------- PRODUCTION ----------------------------------------------------------#

fix	            npt_production all npt temp 300 300 100.0 iso 197.4 197.4 1000.0
fix             DensAve all ave/time 1 100000 100000 v_Density file density.dat
fix             VoluAve all ave/time 1 10000000 10000000 v_Volume file volume.dat
fix             Densfinal all ave/time 1 10000000 10000000 v_Density file density_final.dat

restart         1000000 restart_CO2.1 restart_CO2.2

run             10000000
PPPM initialization ...
  G vector (1/distance) = 0.26802663
  grid = 50 50 50
  stencil order = 5
  estimated absolute RMS force accuracy = 0.00040858277
  estimated relative force accuracy = 1.2304349e-06
  3d grid and FFT values/proc = 12500 5000
Generated 1 of 1 mixed pair_coeff terms from arithmetic mixing rule
Step         PotEng         KinEng         TotEng         Press           Temp       c_theta_ave    c_length_ave    v_Density
0  -2450.8739      5361.9764      2911.1025      407.56742      299.8553       174.68096      1.1605529      0.89843183
Averages over the last 5001 of 10001 rows, steps 5000000 to 10000000:
PotEng KinEng TotEng Press Temp c_theta_ave c_length_ave v_Density
-2533.01 5363.48 2830.47 196.382 299.94 174.732 1.16062 0.907169
Loop time of 48801.3 on 36 procs for 10000000 steps with 6000 atoms

write_data      CO2_final.data
System init for write_data ...
PPPM initialization ...
  G vector (1/distance) = 0.26741705
  grid = 50 50 50
  stencil order = 5
  estimated absolute RMS force accuracy = 0.00042188047
  estimated relative force accuracy = 1.2704805e-06
  3d grid and FFT values/proc = 12500 5000
Generated 1 of 1 mixed pair_coeff terms from arithmetic mixing rule

unfix           npt_production

print ================================================================================================================
================================================================================================================
print                                      "BOX-RESHAPE"
BOX-RESHAPE
print ================================================================================================================
================================================================================================================

# >>>>>>>>>>>>>>>>>>>>>>>>>>>>>>>>>>>>>>>>> BOX RESHAPE <<<<<<<<<<<<<<<<<<<<<<<<<<<<<<<<<<<<<<<<<<<<<<<<<<<<<<<<<<<<<<<<<<< #

velocity	    all scale 300
velocity        all zero linear units box
velocity        all zero angular units box

# # --------------------------------------- NVT init for Reshape ------------------------------------------------------------#

fix             NVT_init all nvt temp 300 300 100

thermo_modify   flush yes
thermo_style    custom step vol temp press ke pe etotal density xlo ylo zlo xhi yhi zhi
thermo          1000

run             500000
PPPM initialization ...
  G vector (1/distance) = 0.26741705
  grid = 50 50 50
  stencil order = 5
  estimated absolute RMS force accuracy = 0.00042188047
  estimated relative force accuracy = 1.2704805e-06
  3d grid and FFT values/proc = 12500 5000
Generated 1 of 1 mixed pair_coeff terms from arithmetic mixing rule
Step         Volume          Temp          Press          KinEng         PotEng         TotEng        Density          Xlo            Ylo            Zlo            Xhi            Yhi            Zhi
10000000   168226.53      299.96428      252.80945      5363.9251     -2333.3927      3030.5324      0.86882239    -0.56246851    -0.56246851    -0.56246851     54.640805      54.640805      54.640805
Averages over the last 251 of 501 rows, steps 10250000 to 10500000:
Volume Temp Press KinEng PotEng TotEng Density Xlo Ylo Zlo Xhi Yhi Zhi
168227 299.945 139.347 5363.58 -2334.78 3028.81 0.868822 -0.562469 -0.562469 -0.562469 54.6408 54.6408 54.6408
Loop time of 2247.55 on 36 procs for 500000 steps with 6000 atoms

unfix           NVT_init

# --------------------------------------- NVE reshape run --------------------------------------------------------------------#

fix		        NVE_1 all nve

variable        average_volume  equal f_VoluAve
variable        average_density equal f_Densfinal

The mean volume 160960.854925065
The final density 0.908192791097167

variable        ulcubed      equal f_VoluAve/(3*3*20)
variable        unit_length  equal 894.226971805919^0.33333333
variable        new_x_length equal 3*v_unit_length
variable        new_y_length equal 3*v_unit_length
variable        new_z_length equal 20*v_unit_length

unfix           DensAve
unfix           VoluAve
unfix           Densfinal

fix             reshape all deform 1 x final 0.0 28.9026169083931 y final 0.0 28.9026169083931                                      z final 0.0 192.684112722621 units box

run             10000
PPPM initialization ...
  G vector (1/distance) = 0.26741705
  grid = 50 50 50
  stencil order = 5
  estimated absolute RMS force accuracy = 0.00042188047
  estimated relative force accuracy = 1.2704805e-06
  3d grid and FFT values/proc = 12500 5000
Generated 1 of 1 mixed pair_coeff terms from arithmetic mixing rule
Step         Volume          Temp          Press          KinEng         PotEng         TotEng        Density          Xlo            Ylo            Zlo            Xhi            Yhi            Zhi
10500000   168226.53      301.46304      126.92415      5390.7258     -2308.0299      3082.6959      0.86882239    -0.56246851    -0.56246851    -0.56246851     54.640805      54.640805      54.640805
Averages over the last 6 of 11 rows, steps 10505000 to 10510000:
Volume Temp Press KinEng PotEng TotEng Density Xlo Ylo Zlo Xhi Yhi Zhi
194976 341.74 632.497 6110.95 -1391.47 4719.47 0.758406 -0.140617 -0.140617 -0.140617 35.3372 35.3372 158.173
Loop time of 49.7937 on 36 procs for 10000 steps with 6000 atoms

unfix           reshape
unfix           NVE_1

velocity	    all scale 300
velocity        all zero linear units box
velocity        all zero angular units box

# --------------------------------------- NVT-init -----------------------------------------------------------------------#

fix             NVT_RE all nvt temp 300 300 100

run             500000
PPPM initialization ...
  G vector (1/distance) = 0.26860453
  grid = 32 32 128
  stencil order = 5
  estimated absolute RMS force accuracy = 0.00039160846
  estimated relative force accuracy = 1.1793172e-06
  3d grid and FFT values/proc = 14079 4096
Generated 1 of 1 mixed pair_coeff terms from arithmetic mixing rule
Step         Volume          Temp          Press          KinEng         PotEng         TotEng        Density          Xlo            Ylo            Zlo            Xhi            Yhi            Zhi
10510000   160960.84      299.92204      914.1212       5363.1697     -2031.4042      3331.7655      0.90804056     0              0              0              28.902617      28.902617      192.68411
Averages over the last 251 of 501 rows, steps 10760000 to 11010000:
Volume Temp Press KinEng PotEng TotEng Density Xlo Ylo Zlo Xhi Yhi Zhi
160961 299.94 325.069 5363.49 -2622.11 2741.37 0.908041 0 0 0 28.9026 28.9026 192.684
Loop time of 2558.23 on 36 procs for 500000 steps with 6000 atoms

unfix           NVT_RE

# --------------------------------------- NVE cuboid equilibration run -----------------------------------------------------#

fix		        NVE_RE all nve

run             500000
PPPM initialization ...
  G vector (1/distance) = 0.26860453
  grid = 32 32 128
  stencil order = 5
  estimated absolute RMS force accuracy = 0.00039160846
  estimated relative force accuracy = 1.1793172e-06
  3d grid and FFT values/proc = 14079 4096
Generated 1 of 1 mixed pair_coeff terms from arithmetic mixing rule
Step         Volume          Temp          Press          KinEng         PotEng         TotEng        Density          Xlo            Ylo            Zlo            Xhi            Yhi            Zhi
11010000   160960.84      299.71676      0.40377594     5359.4991     -2622.8845      2736.6145      0.90804056     0              0              0              28.902617      28.902617      192.68411
Averages over the last 251 of 501 rows, steps 11260000 to 11510000:
Volume Temp Press KinEng PotEng TotEng Density Xlo Ylo Zlo Xhi Yhi Zhi
160961 298.757 251.279 5342.34 -2605.6 2736.74 0.908041 0 0 0 28.9026 28.9026 192.684
Loop time of 2188.14 on 36 procs for 500000 steps with 6000 atoms

restart         1000000 restart_CO2.1 restart_CO2.2

write_data      CO2_cuboid.data
System init for write_data ...
PPPM initialization ...
  G vector (1/distance) = 0.26860453
  grid = 32 32 128
  stencil order = 5
  estimated absolute RMS force accuracy = 0.00039160846
  estimated relative force accuracy = 1.1793172e-06
  3d grid and FFT values/proc = 14079 4096
Generated 1 of 1 mixed pair_coeff terms from arithmetic mixing rule

quit
