units		    real
atom_style	    full
boundary        p p p
pair_style	    lj/cut/coul/long 12.0
pair_modify     mix arithmetic tail yes   # Geometric for EPM2
kspace_style    pppm 1e-6
bond_style      harmonic
angle_style     harmonic

read_data       ./data.lmp           # read the positions --------------comment it out for restarting
Reading data file ...
  orthogonal box = (0 0 0) to (54.965023 54.965023 54.965023)
  reading atoms ...
  6000 atoms
  scanning bonds ...
  scanning angles ...
  reading bonds ...
  4000 bonds
  reading angles ...
  2000 angles
Finding 1-2 1-3 1-4 neighbors ...
     2 = max # of 1-2 neighbors
     1 = max # of 1-3 neighbors
     1 = max # of 1-4 neighbors
     2 = max # of special neighbors
#read_restart   2.restart

#----------------------------------------------------------------------------#
# FORCEFIELD - TraPPE Flexible model for CO2 (DOI- 10.1021/acs.jced.9b00006)
#----------------------------------------------------------------------------#

pair_coeff      1   1  0.1569891239   3.05             # [O]=C=O
pair_coeff      2   2  0.0536545107   2.8              # O=[C]=O

bond_coeff      1   1028.266  1.16

angle_coeff     1   55.96  180

mass            1   15.9994                       # O
mass            2   12.0107                       # C

set type        1   charge     -0.3500            # O
Setting atom values ...
  4000 settings made for charge
set type        2   charge     +0.7000            # C
Setting atom values ...
  2000 settings made for charge

#------------------------ VARIABLES------------------------------------------#

variable  TEMP_INDEX       equal 300  # in K
variable  PRESS_INDEX      equal 160  # in bar
variable  RandomSeed       equal 3000  # RANDOM SEED
variable  nz_layers        equal 20
variable  nx_layers        equal 3
variable  timestep         equal 0.5

variable  simulationTemp   equal 300
variable  pressure         equal 0.987*160

variable  Ninptpre         equal 100000
variable  Ninpt            equal 1000000
variable  Npnpt            equal 2000000

variable  equi_run         equal 1000000           #500000
variable  npt_run          equal 10000000           #5000000
variable  NBR              equal 10000000/100

variable  Density          equal density
variable  Volume           equal vol

variable  dumpfreq         equal 1000
variable  thermofreq       equal 1000
variable  printfreq        equal 1000
variable  restartfreq      equal 1000000

variable  NVT_init         equal 500000
variable  NVE_reshape      equal 10000
variable  NVT_run_2        equal 500000
variable  NVE_cuboid       equal 500000

variable  thermo_num       equal 1000

#---------------------------- GROUPS/NEIGHBOUR - LIST -----------------------------------------------------------------------#

group           oxy  type 1
4000 atoms in group oxy
group           carb type 2
2000 atoms in group carb

neighbor	    3.0 bin
neigh_modify    every 1 delay 0 check yes
run_style       verlet

#---------------------------- CONGUGATE-GRADIENT MINIMIZATION --------------------------------------------------------#

#minimize energytolerance forcetolerance max_iterations_of_minimizer max_number_of_force_or_energy_evaluations
minimize        1e-6 1e-8 100000 10000000
PPPM initialization ...
  G vector (1/distance) = 0.26765441
  grid = 50 50 50
  stencil order = 5
  estimated absolute RMS force accuracy = 0.00041666652
  estimated relative force accuracy = 1.2547789e-06
  3d grid and FFT values/proc = 12500 5000
Generated 1 of 1 mixed pair_coeff terms from arithmetic mixing rule
Step          Temp          E_pair         E_mol          TotEng         Press
0   0             -1994.5914      6.626504e-05  -1994.5914      5536.5093
Loop time of 16.6392 on 36 procs for 1599 steps with 6000 atoms

Minimization stats:
  Stopping criterion = energy tolerance
  Energy initial, next-to-last, final =
  Force two-norm initial, final = 460.00158 6.5966423
  Force max component initial, final = 18.184313 0.92015529
  Final line search alpha, max atom move = 0.034210035 0.031478544
  Iterations, force evaluations = 1599 3141

#---------------------------- NPT simulations  ---------------------------------------------------------------------#

fix runnpt all npt temp 300 300 10 iso 157.92 157.92 100

compute theta       all     angle/local   theta
compute length      all     bond/local    dist

compute theta_ave   all     reduce        ave       c_theta
compute length_ave  all     reduce        ave       c_length

thermo_style custom step pe ke etotal press temp c_theta_ave c_length_ave v_Density
thermo_modify flush yes
thermo 1000

velocity	    all create 300 3000 mom yes rot yes dist gaussian

#-----------------------
# Run (Pre-Initialization)
#-----------------------

timestep    0.1
run         100000
PPPM initialization ...
  G vector (1/distance) = 0.26765441
  grid = 50 50 50
  stencil order = 5
  estimated absolute RMS force accuracy = 0.00041666652
  estimated relative force accuracy = 1.2547789e-06
  3d grid and FFT values/proc = 12500 5000
Generated 1 of 1 mixed pair_coeff terms from arithmetic mixing rule
Step         PotEng         KinEng         TotEng         Press           Temp       c_theta_ave    c_length_ave    v_Density
1599  -9433.7254      5364.5638     -4069.1615      990.05747      300            179.41442      1.160839       0.88016936
Averages over the last 51 of 102 rows, steps 52000 to 101599:
PotEng KinEng TotEng Press Temp c_theta_ave c_length_ave v_Density
-2306.67 5350.36 3043.69 177.917 299.206 174.839 1.16059 0.839892
Loop time of 501.617 on 36 procs for 100000 steps with 6000 atoms

timestep    0.2
run         100000
PPPM initialization ...
  G vector (1/distance) = 0.27141563
  grid = 54 54 54
  stencil order = 5
  estimated absolute RMS force accuracy = 0.0003062943
  estimated relative force accuracy = 9.2239619e-07
  3d grid and FFT values/proc = 13125 5832
Generated 1 of 1 mixed pair_coeff terms from arithmetic mixing rule
Step         PotEng         KinEng         TotEng         Press           Temp       c_theta_ave    c_length_ave    v_Density
101599  -2206.6253      5377.4571      3170.8318      283.85199      300.72102      174.79463      1.1604664      0.84855535
Averages over the last 51 of 102 rows, steps 152000 to 201599:
PotEng KinEng TotEng Press Temp c_theta_ave c_length_ave v_Density
-2308.78 5375.35 3066.57 164.897 300.603 174.814 1.1606 0.86015
Loop time of 547.556 on 36 procs for 100000 steps with 6000 atoms

timestep    0.25
run         100000
PPPM initialization ...
  G vector (1/distance) = 0.26728084
  grid = 50 50 50
  stencil order = 5
  estimated absolute RMS force accuracy = 0.00042489322
  estimated relative force accuracy = 1.2795533e-06
  3d grid and FFT values/proc = 12500 5000
Generated 1 of 1 mixed pair_coeff terms from arithmetic mixing rule
Step         PotEng         KinEng         TotEng         Press           Temp       c_theta_ave    c_length_ave    v_Density
201599  -2238.5109      5363.7721      3125.2613      57.499952      299.95572      174.70329      1.1607379      0.86241314
Averages over the last 51 of 102 rows, steps 252000 to 301599:
PotEng KinEng TotEng Press Temp c_theta_ave c_length_ave v_Density
-2317.19 5386.64 3069.45 175.991 301.235 174.812 1.1606 0.859563
Loop time of 494.058 on 36 procs for 100000 steps with 6000 atoms

timestep    0.5
run         100000
PPPM initialization ...
  G vector (1/distance) = 0.26760767
  grid = 50 50 50
  stencil order = 5
  estimated absolute RMS force accuracy = 0.00041768967
  estimated relative force accuracy = 1.25786e-06
  3d grid and FFT values/proc = 12500 5000
Generated 1 of 1 mixed pair_coeff terms from arithmetic mixing rule
Step         PotEng         KinEng         TotEng         Press           Temp       c_theta_ave    c_length_ave    v_Density
301599  -2399.1085      5395.4166      2996.3081      342.99954      301.72537      174.81138      1.1605281      0.87791669
Averages over the last 51 of 102 rows, steps 352000 to 401599:
PotEng KinEng TotEng Press Temp c_theta_ave c_length_ave v_Density
-2238.82 5365.26 3126.44 133.456 300.039 174.779 1.16063 0.847712
Loop time of 448.061 on 36 procs for 100000 steps with 6000 atoms

#-----------------------
# Run (Initialization)
#-----------------------

unfix       runnpt
reset_timestep 0

fix runnpt all npt temp 300 300 100 iso 157.92 157.92 1000

timestep    0.5
run         1000000
PPPM initialization ...
  G vector (1/distance) = 0.27141494
  grid = 54 54 54
  stencil order = 5
  estimated absolute RMS force accuracy = 0.00030630518
  estimated relative force accuracy = 9.2242896e-07
  3d grid and FFT values/proc = 13125 5832
Generated 1 of 1 mixed pair_coeff terms from arithmetic mixing rule
Step         PotEng         KinEng         TotEng         Press           Temp       c_theta_ave    c_length_ave    v_Density
0  -2177.9412      5326.7931      3148.8519     -231.93522      297.88776      174.6856       1.1608899      0.84852449
Averages over the last 501 of 1001 rows, steps 500000 to 1000000:
PotEng KinEng TotEng Press Temp c_theta_ave c_length_ave v_Density
-2330.84 5366.08 3035.25 144.308 300.085 174.732 1.16062 0.867187
Loop time of 4305.97 on 36 procs for 1000000 steps with 6000 atoms

unfix       runnpt
reset_timestep 0

#-------------------------------------------------- PRODUCTION ----------------------------------------------------------#

fix	            npt_production all npt temp 300 300 100.0 iso 157.92 157.92 1000.0
fix             DensAve all ave/time 1 100000 100000 v_Density file density.dat
fix             VoluAve all ave/time 1 10000000 10000000 v_Volume file volume.dat
fix             Densfinal all ave/time 1 10000000 10000000 v_Density file density_final.dat

restart         1000000 restart_CO2.1 restart_CO2.2

run             10000000
PPPM initialization ...
  G vector (1/distance) = 0.26747331
  grid = 50 50 50
  stencil order = 5
  estimated absolute RMS force accuracy = 0.00042064057
  estimated relative force accuracy = 1.2667466e-06
  3d grid and FFT values/proc = 12500 5000
Generated 1 of 1 mixed pair_coeff terms from arithmetic mixing rule
Step         PotEng         KinEng         TotEng         Press           Temp       c_theta_ave    c_length_ave    v_Density
0  -2307.7523      5337.1922      3029.4399     -43.264622      298.46931      174.69199      1.1607824      0.87149109
Averages over the last 5001 of 10001 rows, steps 5000000 to 10000000:
PotEng KinEng TotEng Press Temp c_theta_ave c_length_ave v_Density
-2348.5 5365.19 3016.68 153.253 300.035 174.722 1.16062 0.871188
Loop time of 32324.8 on 36 procs for 10000000 steps with 6000 atoms

write_data      CO2_final.data
System init for write_data ...
PPPM initialization ...
  G vector (1/distance) = 0.26750485
  grid = 50 50 50
  stencil order = 5
  estimated absolute RMS force accuracy = 0.00041994651
  estimated relative force accuracy = 1.2646564e-06
  3d grid and FFT values/proc = 12500 5000
Generated 1 of 1 mixed pair_coeff terms from arithmetic mixing rule

unfix           npt_production

print ================================================================================================================
================================================================================================================
print                                      "BOX-RESHAPE"
BOX-RESHAPE
print ================================================================================================================
================================================================================================================

# >>>>>>>>>>>>>>>>>>>>>>>>>>>>>>>>>>>>>>>>> BOX RESHAPE <<<<<<<<<<<<<<<<<<<<<<<<<<<<<<<<<<<<<<<<<<<<<<<<<<<<<<<<<<<<<<<<<<< #

velocity	    all scale 300
velocity        all zero linear units box
velocity        all zero angular units box

# # --------------------------------------- NVT init for Reshape ------------------------------------------------------------#

fix             NVT_init all nvt temp 300 300 100

thermo_modify   flush yes
thermo_style    custom step vol temp press ke pe etotal density xlo ylo zlo xhi yhi zhi
thermo          1000

run             500000
PPPM initialization ...
  G vector (1/distance) = 0.26750485
  grid = 50 50 50
  stencil order = 5
  estimated absolute RMS force accuracy = 0.00041994651
  estimated relative force accuracy = 1.2646564e-06
  3d grid and FFT values/proc = 12500 5000
Generated 1 of 1 mixed pair_coeff terms from arithmetic mixing rule
Step         Volume          Temp          Press          KinEng         PotEng         TotEng        Density          Xlo            Ylo            Zlo            Xhi            Yhi            Zhi
10000000   167422.85      299.96144     -251.02354      5363.8743     -2429.5561      2934.3183      0.87299297    -0.07510072    -0.07510072    -0.07510072     55.040124      55.040124      55.040124
Averages over the last 251 of 501 rows, steps 10250000 to 10500000:
Volume Temp Press KinEng PotEng TotEng Density Xlo Ylo Zlo Xhi Yhi Zhi
167423 299.718 158.73 5359.52 -2362.94 2996.58 0.872993 -0.0751007 -0.0751007 -0.0751007 55.0401 55.0401 55.0401
Loop time of 1297.59 on 36 procs for 500000 steps with 6000 atoms

unfix           NVT_init

# --------------------------------------- NVE reshape run --------------------------------------------------------------------#

fix		        NVE_1 all nve

variable        average_volume  equal f_VoluAve
variable        average_density equal f_Densfinal

The mean volume 167708.91647737
The final density 0.871649705747972

variable        ulcubed      equal f_VoluAve/(3*3*20)
variable        unit_length  equal 931.716202652058^0.33333333
variable        new_x_length equal 3*v_unit_length
variable        new_y_length equal 3*v_unit_length
variable        new_z_length equal 20*v_unit_length

unfix           DensAve
unfix           VoluAve
unfix           Densfinal

fix             reshape all deform 1 x final 0.0 29.3010012399836 y final 0.0 29.3010012399836                                      z final 0.0 195.340008266557 units box

run             10000
PPPM initialization ...
  G vector (1/distance) = 0.26750485
  grid = 50 50 50
  stencil order = 5
  estimated absolute RMS force accuracy = 0.00041994651
  estimated relative force accuracy = 1.2646564e-06
  3d grid and FFT values/proc = 12500 5000
Generated 1 of 1 mixed pair_coeff terms from arithmetic mixing rule
Step         Volume          Temp          Press          KinEng         PotEng         TotEng        Density          Xlo            Ylo            Zlo            Xhi            Yhi            Zhi
10500000   167422.85      299.18619      689.17612      5350.0115     -2301.6153      3048.3961      0.87299297    -0.07510072    -0.07510072    -0.07510072     55.040124      55.040124      55.040124
Averages over the last 6 of 11 rows, steps 10505000 to 10510000:
Volume Temp Press KinEng PotEng TotEng Density Xlo Ylo Zlo Xhi Yhi Zhi
200470 337.026 297.726 6026.66 -1297.24 4729.43 0.736417 -0.0187752 -0.0187752 -0.0187752 35.7358 35.7358 160.265
Loop time of 29.963 on 36 procs for 10000 steps with 6000 atoms

unfix           reshape
unfix           NVE_1

velocity	    all scale 300
velocity        all zero linear units box
velocity        all zero angular units box

# --------------------------------------- NVT-init -----------------------------------------------------------------------#

fix             NVT_RE all nvt temp 300 300 100

run             500000
PPPM initialization ...
  G vector (1/distance) = 0.26786272
  grid = 32 32 128
  stencil order = 5
  estimated absolute RMS force accuracy = 0.00040746971
  estimated relative force accuracy = 1.2270829e-06
  3d grid and FFT values/proc = 14079 4096
Generated 1 of 1 mixed pair_coeff terms from arithmetic mixing rule
Step         Volume          Temp          Press          KinEng         PotEng         TotEng        Density          Xlo            Ylo            Zlo            Xhi            Yhi            Zhi
10510000   167708.91      299.93299      116.6747       5363.3655     -1893.2686      3470.097       0.87150396     0              0              0              29.301001      29.301001      195.34001
Averages over the last 251 of 501 rows, steps 10760000 to 11010000:
Volume Temp Press KinEng PotEng TotEng Density Xlo Ylo Zlo Xhi Yhi Zhi
167709 300.253 274.083 5369.08 -2423.21 2945.88 0.871504 0 0 0 29.301 29.301 195.34
Loop time of 1441.63 on 36 procs for 500000 steps with 6000 atoms

unfix           NVT_RE

# --------------------------------------- NVE cuboid equilibration run -----------------------------------------------------#

fix		        NVE_RE all nve

run             500000
PPPM initialization ...
  G vector (1/distance) = 0.26786272
  grid = 32 32 128
  stencil order = 5
  estimated absolute RMS force accuracy = 0.00040746971
  estimated relative force accuracy = 1.2270829e-06
  3d grid and FFT values/proc = 14079 4096
Generated 1 of 1 mixed pair_coeff terms from arithmetic mixing rule
Step         Volume          Temp          Press          KinEng         PotEng         TotEng        Density          Xlo            Ylo            Zlo            Xhi            Yhi            Zhi
11010000   167708.91      304.21727      678.68011      5439.9765     -2440.8109      2999.1656      0.87150396     0              0              0              29.301001      29.301001      195.34001
Averages over the last 251 of 501 rows, steps 11260000 to 11510000:
Volume Temp Press KinEng PotEng TotEng Density Xlo Ylo Zlo Xhi Yhi Zhi
167709 300.659 214.426 5376.35 -2376.73 2999.62 0.871504 0 0 0 29.301 29.301 195.34
Loop time of 1437.18 on 36 procs for 500000 steps with 6000 atoms

restart         1000000 restart_CO2.1 restart_CO2.2

write_data      CO2_cuboid.data
System init for write_data ...
PPPM initialization ...
  G vector (1/distance) = 0.26786272
  grid = 32 32 128
  stencil order = 5
  estimated absolute RMS force accuracy = 0.00040746971
  estimated relative force accuracy = 1.2270829e-06
  3d grid and FFT values/proc = 14079 4096
Generated 1 of 1 mixed pair_coeff terms from arithmetic mixing rule

quit
