variable        infile index CO2_cuboid.data
shell           mkdir MULLER_PLATHE
variable        POST index MULLER_PLATHE

variable        timestep         equal 0.5
variable        kb               equal 0.0019872067
variable        nz_layers        equal 60
variable        nx_layers        equal 3
variable        bin_size         equal 1/60
variable        hot_bin          equal (60/2)+1
variable        swap_freq        equal 4000
variable        kappa_run_eq     equal 5000000
variable        kappa_run_pr     equal 20000000
variable        thermo_NUM       equal 4000
variable        N_every          equal 10
variable        N_repeat         equal 1000
variable        N_freq           equal 10000

variable        t                equal step
variable        T                equal temp
variable        P                equal press
variable        Total_Energy     equal etotal
variable        V                equal vol
variable        Total_Density    equal density
variable        xl               equal lx
variable        zl               equal lz

units		    real
atom_style	    full
boundary        p p p
pair_style	    lj/cut/coul/long 12.0
pair_modify     mix arithmetic tail yes   # Geometric for EPM2
kspace_style    pppm 1e-6
bond_style      harmonic
angle_style     harmonic

#---------------------------- NEIGHBOUR_LIST/INITIALIZATION -----------------------------------------------------------------------#

read_data       CO2_cuboid.data
Reading data file ...
  orthogonal box = (0 0 0) to (29.094145 29.094145 193.96096)
  reading atoms ...
  6000 atoms
  reading velocities ...
  6000 velocities
  scanning bonds ...
  scanning angles ...
  reading bonds ...
  4000 bonds
  reading angles ...
  2000 angles
Finding 1-2 1-3 1-4 neighbors ...
     2 = max # of 1-2 neighbors
     1 = max # of 1-3 neighbors
     1 = max # of 1-4 neighbors
     2 = max # of special neighbors

neighbor	    3.0 bin
neigh_modify    every 1 delay 0 check yes

#_______________________ EQUILIBRATION __________________________#

compute         ke all ke/atom
variable        temp atom c_ke/(1.5*0.0019872067)

fix             NVE_MP_eq all nve

compute         temp_layers all chunk/atom bin/1d z lower 0.0166666666666667 units reduced
fix		        temp_profile_eq all ave/chunk 10 1000 10000 temp_layers v_temp file MULLER_PLATHE/temp_profile_eq.MP

variable        hot_layer equal f_temp_profile_eq[31][3]
variable        cold_layer equal f_temp_profile_eq[1][3]

print           "Step T_hot T_cold" file MULLER_PLATHE/Temperature_eq.out
Step T_hot T_cold
fix             PRINT_T all print 10000 "$t $(v_hot_layer:%.4f) $(v_cold_layer:%.4f)"                 append MULLER_PLATHE/Temperature_eq.out title ""

fix             flux_eq all thermal/conductivity 4000 z 60

thermo_style    custom step dt temp press etotal vol density f_flux_eq
thermo_modify   colname f_flux_eq E_delta
thermo          4000

variable        Total_Heat_Flux  equal f_flux_eq

print           "Step Temp Pressure Total_Energy Volume Density x_length z_length Total_Heat_Flux" file MULLER_PLATHE/Muller_Plathe_eq.out
Step Temp Pressure Total_Energy Volume Density x_length z_length Total_Heat_Flux
fix             PRINT all print 4000 "$t $T $P $(v_Total_Energy) $V $(v_Total_Density) $(v_xl) $(v_zl) $(v_Total_Heat_Flux)"                 append MULLER_PLATHE/Muller_Plathe_eq.out title ""

timestep        0.5
run             5000000
PPPM initialization ...
  G vector (1/distance) = 0.26824887
  grid = 32 32 128
  stencil order = 5
  estimated absolute RMS force accuracy = 0.00039915731
  estimated relative force accuracy = 1.2020504e-06
  3d grid and FFT values/proc = 13750 4096
Generated 1 of 1 mixed pair_coeff terms from arithmetic mixing rule
Step           Dt            Temp          Press          TotEng         Volume        Density        E_delta
0   0.5            294.90001      299.65556      2789.1183      164181.99      0.89022537     0
Loop time of 14724.7 on 36 procs for 5000000 steps with 6000 atoms

unfix           NVE_MP_eq
unfix           temp_profile_eq
unfix           flux_eq
unfix           PRINT
unfix           PRINT_T
reset_timestep  0
#_______________________ PRODUCTION __________________________#

fix             NVE_MP_pr all nve

fix		        temp_profile_pr all ave/chunk 10 1000 10000 temp_layers v_temp file MULLER_PLATHE/temp_profile_pr.MP

fix             flux_pr all thermal/conductivity 4000 z 60

thermo_style    custom step dt temp press etotal vol density f_flux_pr
thermo_modify   colname f_flux_pr E_delta
thermo          4000

variable        Total_Heat_Flux equal f_flux_pr

variable        hot_layer equal f_temp_profile_pr[31][3]
variable        cold_layer equal f_temp_profile_pr[1][3]

print           "Step T_hot T_cold" file MULLER_PLATHE/Temperature_pr.out
Step T_hot T_cold
fix             PRINT_T all print 10000 "$t $(v_hot_layer:%.4f) $(v_cold_layer:%.4f)"                 append MULLER_PLATHE/Temperature_pr.out title ""

print           "Step Temp Pressure Total_Energy Volume Density x_length z_length Total_Heat_Flux" file MULLER_PLATHE/Muller_Plathe_pr.out
Step Temp Pressure Total_Energy Volume Density x_length z_length Total_Heat_Flux
fix             PRINT all print 4000 "$t $T $P $(v_Total_Energy) $V $(v_Total_Density) $(v_xl) $(v_zl) $(v_Total_Heat_Flux)"                 append MULLER_PLATHE/Muller_Plathe_pr.out title ""

run             20000000
PPPM initialization ...
  G vector (1/distance) = 0.26824887
  grid = 32 32 128
  stencil order = 5
  estimated absolute RMS force accuracy = 0.00039915731
  estimated relative force accuracy = 1.2020504e-06
  3d grid and FFT values/proc = 13750 4096
Generated 1 of 1 mixed pair_coeff terms from arithmetic mixing rule
Step           Dt            Temp          Press          TotEng         Volume        Density        E_delta
0   0.5            297.37822      179.12074      2792.4743      164181.99      0.89022537     0
Loop time of 56186.2 on 36 procs for 20000000 steps with 6000 atoms

quit
