units		    real
atom_style	    full
boundary        p p p
pair_style	    lj/cut/coul/long 12.0
pair_modify     mix arithmetic tail yes   # Geometric for EPM2
kspace_style    pppm 1e-6
bond_style      harmonic
angle_style     harmonic

read_data       ./data.lmp           # read the positions --------------comment it out for restarting
Reading data file ...
  orthogonal box = (0 0 0) to (55.912882 55.912882 55.912882)
  reading atoms ...
  6000 atoms
  scanning bonds ...
  scanning angles ...
  reading bonds ...
  4000 bonds
  reading angles ...
  2000 angles
Finding 1-2 1-3 1-4 neighbors ...
     2 = max # of 1-2 neighbors
     1 = max # of 1-3 neighbors
     1 = max # of 1-4 neighbors
     2 = max # of special neighbors
#read_restart   2.restart

#----------------------------------------------------------------------------#
# FORCEFIELD - TraPPE Flexible model for CO2 (DOI- 10.1021/acs.jced.9b00006)
#----------------------------------------------------------------------------#

pair_coeff      1   1  0.1569891239   3.05             # [O]=C=O
pair_coeff      2   2  0.0536545107   2.8              # O=[C]=O

bond_coeff      1   1028.266  1.16

angle_coeff     1   55.96  180

mass            1   15.9994                       # O
mass            2   12.0107                       # C

set type        1   charge     -0.3500            # O
Setting atom values ...
  4000 settings made for charge
set type        2   charge     +0.7000            # C
Setting atom values ...
  2000 settings made for charge

#------------------------ VARIABLES------------------------------------------#

variable  TEMP_INDEX       equal 300  # in K
variable  PRESS_INDEX      equal 140  # in bar
variable  RandomSeed       equal 2000  # RANDOM SEED
variable  nz_layers        equal 20
variable  nx_layers        equal 3
variable  timestep         equal 0.5

variable  simulationTemp   equal 300
variable  pressure         equal 0.987*140

variable  Ninptpre         equal 100000
variable  Ninpt            equal 1000000
variable  Npnpt            equal 2000000

variable  equi_run         equal 1000000           #500000
variable  npt_run          equal 10000000           #5000000
variable  NBR              equal 10000000/100

variable  Density          equal density
variable  Volume           equal vol

variable  dumpfreq         equal 1000
variable  thermofreq       equal 1000
variable  printfreq        equal 1000
variable  restartfreq      equal 1000000

variable  NVT_init         equal 500000
variable  NVE_reshape      equal 10000
variable  NVT_run_2        equal 500000
variable  NVE_cuboid       equal 500000

variable  thermo_num       equal 1000

#---------------------------- GROUPS/NEIGHBOUR - LIST -----------------------------------------------------------------------#

group           oxy  type 1
4000 atoms in group oxy
group           carb type 2
2000 atoms in group carb

neighbor	    3.0 bin
neigh_modify    every 1 delay 0 check yes
run_style       verlet

#---------------------------- CONGUGATE-GRADIENT MINIMIZATION --------------------------------------------------------#

#minimize energytolerance forcetolerance max_iterations_of_minimizer max_number_of_force_or_energy_evaluations
minimize        1e-6 1e-8 100000 10000000
PPPM initialization ...
  G vector (1/distance) = 0.2711386
  grid = 54 54 54
  stencil order = 5
  estimated absolute RMS force accuracy = 0.00031073065
  estimated relative force accuracy = 9.3575612e-07
  3d grid and FFT values/proc = 13125 5832
Generated 1 of 1 mixed pair_coeff terms from arithmetic mixing rule
Step          Temp          E_pair         E_mol          TotEng         Press
0   0             -1991.5239      6.7006332e-05 -1991.5238      4671.8647
Loop time of 32.804 on 36 procs for 2731 steps with 6000 atoms

Minimization stats:
  Stopping criterion = energy tolerance
  Energy initial, next-to-last, final =
  Force two-norm initial, final = 440.89082 4.6884561
  Force max component initial, final = 16.949562 1.2397696
  Final line search alpha, max atom move = 0.052748857 0.065396431
  Iterations, force evaluations = 2731 5425

#---------------------------- NPT simulations  ---------------------------------------------------------------------#

fix runnpt all npt temp 300 300 10 iso 138.18 138.18 100

compute theta       all     angle/local   theta
compute length      all     bond/local    dist

compute theta_ave   all     reduce        ave       c_theta
compute length_ave  all     reduce        ave       c_length

thermo_style custom step pe ke etotal press temp c_theta_ave c_length_ave v_Density
thermo_modify flush yes
thermo 1000

velocity	    all create 300 2000 mom yes rot yes dist gaussian

#-----------------------
# Run (Pre-Initialization)
#-----------------------

timestep    0.1
run         100000
PPPM initialization ...
  G vector (1/distance) = 0.2711386
  grid = 54 54 54
  stencil order = 5
  estimated absolute RMS force accuracy = 0.00031073065
  estimated relative force accuracy = 9.3575612e-07
  3d grid and FFT values/proc = 13125 5832
Generated 1 of 1 mixed pair_coeff terms from arithmetic mixing rule
Step         PotEng         KinEng         TotEng         Press           Temp       c_theta_ave    c_length_ave    v_Density
2731  -9704.8898      5364.5638     -4340.3259      1134.0559      300            179.41082      1.1608354      0.8361609
Averages over the last 51 of 102 rows, steps 53000 to 102731:
PotEng KinEng TotEng Press Temp c_theta_ave c_length_ave v_Density
-2258.84 5365.9 3107.06 144.619 300.075 174.79 1.16061 0.809334
Loop time of 584.328 on 36 procs for 100000 steps with 6000 atoms

timestep    0.2
run         100000
PPPM initialization ...
  G vector (1/distance) = 0.26748507
  grid = 50 50 50
  stencil order = 5
  estimated absolute RMS force accuracy = 0.00042038168
  estimated relative force accuracy = 1.2659669e-06
  3d grid and FFT values/proc = 12500 5000
Generated 1 of 1 mixed pair_coeff terms from arithmetic mixing rule
Step         PotEng         KinEng         TotEng         Press           Temp       c_theta_ave    c_length_ave    v_Density
102731  -2461.9125      5426.1063      2964.1937      19.254719      303.44161      174.87023      1.1607671      0.87205064
Averages over the last 51 of 102 rows, steps 153000 to 202731:
PotEng KinEng TotEng Press Temp c_theta_ave c_length_ave v_Density
-2295.31 5365.09 3069.77 182.515 300.029 174.804 1.16058 0.862097
Loop time of 475.017 on 36 procs for 100000 steps with 6000 atoms

timestep    0.25
run         100000
PPPM initialization ...
  G vector (1/distance) = 0.26725562
  grid = 50 50 50
  stencil order = 5
  estimated absolute RMS force accuracy = 0.00042545265
  estimated relative force accuracy = 1.281238e-06
  3d grid and FFT values/proc = 12500 5000
Generated 1 of 1 mixed pair_coeff terms from arithmetic mixing rule
Step         PotEng         KinEng         TotEng         Press           Temp       c_theta_ave    c_length_ave    v_Density
202731  -2305.9876      5378.2487      3072.2611     -17.867137      300.76529      174.8224       1.160797       0.86123462
Averages over the last 51 of 102 rows, steps 253000 to 302731:
PotEng KinEng TotEng Press Temp c_theta_ave c_length_ave v_Density
-2297.52 5368.13 3070.61 135.417 300.2 174.789 1.16062 0.861382
Loop time of 469.512 on 36 procs for 100000 steps with 6000 atoms

timestep    0.5
run         100000
PPPM initialization ...
  G vector (1/distance) = 0.26721304
  grid = 50 50 50
  stencil order = 5
  estimated absolute RMS force accuracy = 0.00042639849
  estimated relative force accuracy = 1.2840864e-06
  3d grid and FFT values/proc = 12500 5000
Generated 1 of 1 mixed pair_coeff terms from arithmetic mixing rule
Step         PotEng         KinEng         TotEng         Press           Temp       c_theta_ave    c_length_ave    v_Density
302731  -2368.3072      5303.9764      2935.6692     -241.35482      296.6118       174.80707      1.1609055      0.85925019
Averages over the last 51 of 102 rows, steps 353000 to 402731:
PotEng KinEng TotEng Press Temp c_theta_ave c_length_ave v_Density
-2286.82 5377.27 3090.45 143.015 300.711 174.762 1.16061 0.860005
Loop time of 469.362 on 36 procs for 100000 steps with 6000 atoms

#-----------------------
# Run (Initialization)
#-----------------------

unfix       runnpt
reset_timestep 0

fix runnpt all npt temp 300 300 100 iso 138.18 138.18 1000

timestep    0.5
run         1000000
PPPM initialization ...
  G vector (1/distance) = 0.26707595
  grid = 50 50 50
  stencil order = 5
  estimated absolute RMS force accuracy = 0.00042945388
  estimated relative force accuracy = 1.2932876e-06
  3d grid and FFT values/proc = 12500 5000
Generated 1 of 1 mixed pair_coeff terms from arithmetic mixing rule
Step         PotEng         KinEng         TotEng         Press           Temp       c_theta_ave    c_length_ave    v_Density
0  -2244.8675      5327.5927      3082.7252     -283.61814      297.93248      174.72202      1.1609068      0.85290891
Averages over the last 501 of 1001 rows, steps 500000 to 1000000:
PotEng KinEng TotEng Press Temp c_theta_ave c_length_ave v_Density
-2317.51 5365.47 3047.96 133.353 300.051 174.754 1.16062 0.866663
Loop time of 4687.92 on 36 procs for 1000000 steps with 6000 atoms

unfix       runnpt
reset_timestep 0

#-------------------------------------------------- PRODUCTION ----------------------------------------------------------#

fix	            npt_production all npt temp 300 300 100.0 iso 138.18 138.18 1000.0
fix             DensAve all ave/time 1 100000 100000 v_Density file density.dat
fix             VoluAve all ave/time 1 10000000 10000000 v_Volume file volume.dat
fix             Densfinal all ave/time 1 10000000 10000000 v_Density file density_final.dat

restart         1000000 restart_CO2.1 restart_CO2.2

run             10000000
PPPM initialization ...
  G vector (1/distance) = 0.26760729
  grid = 50 50 50
  stencil order = 5
  estimated absolute RMS force accuracy = 0.00041769789
  estimated relative force accuracy = 1.2578848e-06
  3d grid and FFT values/proc = 12500 5000
Generated 1 of 1 mixed pair_coeff terms from arithmetic mixing rule
Step         PotEng         KinEng         TotEng         Press           Temp       c_theta_ave    c_length_ave    v_Density
0  -2303.4466      5382.7291      3079.2825      449.97643      301.01585      174.72928      1.1604048      0.87789864
Averages over the last 5001 of 10001 rows, steps 5000000 to 10000000:
PotEng KinEng TotEng Press Temp c_theta_ave c_length_ave v_Density
-2346.35 5364.05 3017.7 135.109 299.972 174.71 1.16062 0.87359
Loop time of 47219.7 on 36 procs for 10000000 steps with 6000 atoms

write_data      CO2_final.data
System init for write_data ...
PPPM initialization ...
  G vector (1/distance) = 0.26756693
  grid = 50 50 50
  stencil order = 5
  estimated absolute RMS force accuracy = 0.00041858276
  estimated relative force accuracy = 1.2605496e-06
  3d grid and FFT values/proc = 12500 5000
Generated 1 of 1 mixed pair_coeff terms from arithmetic mixing rule

unfix           npt_production

print ================================================================================================================
================================================================================================================
print                                      "BOX-RESHAPE"
BOX-RESHAPE
print ================================================================================================================
================================================================================================================

# >>>>>>>>>>>>>>>>>>>>>>>>>>>>>>>>>>>>>>>>> BOX RESHAPE <<<<<<<<<<<<<<<<<<<<<<<<<<<<<<<<<<<<<<<<<<<<<<<<<<<<<<<<<<<<<<<<<<< #

velocity	    all scale 300
velocity        all zero linear units box
velocity        all zero angular units box

# # --------------------------------------- NVT init for Reshape ------------------------------------------------------------#

fix             NVT_init all nvt temp 300 300 100

thermo_modify   flush yes
thermo_style    custom step vol temp press ke pe etotal density xlo ylo zlo xhi yhi zhi
thermo          1000

run             500000
PPPM initialization ...
  G vector (1/distance) = 0.26756693
  grid = 50 50 50
  stencil order = 5
  estimated absolute RMS force accuracy = 0.00041858276
  estimated relative force accuracy = 1.2605496e-06
  3d grid and FFT values/proc = 12500 5000
Generated 1 of 1 mixed pair_coeff terms from arithmetic mixing rule
Step         Volume          Temp          Press          KinEng         PotEng         TotEng        Density          Xlo            Ylo            Zlo            Xhi            Yhi            Zhi
10000000   166855.6       299.94304      43.038114      5363.5454     -2387.9869      2975.5585      0.87596085     0.42998697     0.42998697     0.42998697     55.482895      55.482895      55.482895
Averages over the last 251 of 501 rows, steps 10250000 to 10500000:
Volume Temp Press KinEng PotEng TotEng Density Xlo Ylo Zlo Xhi Yhi Zhi
166856 300.136 130.106 5367 -2351.42 3015.58 0.875961 0.429987 0.429987 0.429987 55.4829 55.4829 55.4829
Loop time of 2117.29 on 36 procs for 500000 steps with 6000 atoms

unfix           NVT_init

# --------------------------------------- NVE reshape run --------------------------------------------------------------------#

fix		        NVE_1 all nve

variable        average_volume  equal f_VoluAve
variable        average_density equal f_Densfinal

The mean volume 167444.376048255
The final density 0.873070392376739

variable        ulcubed      equal f_VoluAve/(3*3*20)
variable        unit_length  equal 930.246533601418^0.33333333
variable        new_x_length equal 3*v_unit_length
variable        new_y_length equal 3*v_unit_length
variable        new_z_length equal 20*v_unit_length

unfix           DensAve
unfix           VoluAve
unfix           Densfinal

fix             reshape all deform 1 x final 0.0 29.2855868766536 y final 0.0 29.2855868766536                                      z final 0.0 195.237245844357 units box

run             10000
PPPM initialization ...
  G vector (1/distance) = 0.26756693
  grid = 50 50 50
  stencil order = 5
  estimated absolute RMS force accuracy = 0.00041858276
  estimated relative force accuracy = 1.2605496e-06
  3d grid and FFT values/proc = 12500 5000
Generated 1 of 1 mixed pair_coeff terms from arithmetic mixing rule
Step         Volume          Temp          Press          KinEng         PotEng         TotEng        Density          Xlo            Ylo            Zlo            Xhi            Yhi            Zhi
10500000   166855.6       299.62612      86.360995      5357.8781     -2307.4001      3050.478       0.87596085     0.42998697     0.42998697     0.42998697     55.482895      55.482895      55.482895
Averages over the last 6 of 11 rows, steps 10505000 to 10510000:
Volume Temp Press KinEng PotEng TotEng Density Xlo Ylo Zlo Xhi Yhi Zhi
200050 334.561 418.615 5982.59 -1228.6 4753.98 0.73792 0.107497 0.107497 0.107497 35.8349 35.8349 160.299
Loop time of 47.6906 on 36 procs for 10000 steps with 6000 atoms

unfix           reshape
unfix           NVE_1

velocity	    all scale 300
velocity        all zero linear units box
velocity        all zero angular units box

# --------------------------------------- NVT-init -----------------------------------------------------------------------#

fix             NVT_RE all nvt temp 300 300 100

run             500000
PPPM initialization ...
  G vector (1/distance) = 0.26789157
  grid = 32 32 128
  stencil order = 5
  estimated absolute RMS force accuracy = 0.00040684454
  estimated relative force accuracy = 1.2252003e-06
  3d grid and FFT values/proc = 16150 4096
Generated 1 of 1 mixed pair_coeff terms from arithmetic mixing rule
Step         Volume          Temp          Press          KinEng         PotEng         TotEng        Density          Xlo            Ylo            Zlo            Xhi            Yhi            Zhi
10510000   167444.36      299.98198      847.89986      5364.2416     -1841.6426      3522.599       0.87288083     0              0              0              29.285587      29.285587      195.23725
Averages over the last 251 of 501 rows, steps 10760000 to 11010000:
Volume Temp Press KinEng PotEng TotEng Density Xlo Ylo Zlo Xhi Yhi Zhi
167444 300.02 257.264 5364.92 -2421.5 2943.42 0.872881 0 0 0 29.2856 29.2856 195.237
Loop time of 2520.28 on 36 procs for 500000 steps with 6000 atoms

unfix           NVT_RE

# --------------------------------------- NVE cuboid equilibration run -----------------------------------------------------#

fix		        NVE_RE all nve

run             500000
PPPM initialization ...
  G vector (1/distance) = 0.26789157
  grid = 32 32 128
  stencil order = 5
  estimated absolute RMS force accuracy = 0.00040684454
  estimated relative force accuracy = 1.2252003e-06
  3d grid and FFT values/proc = 16150 4096
Generated 1 of 1 mixed pair_coeff terms from arithmetic mixing rule
Step         Volume          Temp          Press          KinEng         PotEng         TotEng        Density          Xlo            Ylo            Zlo            Xhi            Yhi            Zhi
11010000   167444.36      299.40055      593.05973      5353.8445     -2307.0434      3046.8012      0.87288083     0              0              0              29.285587      29.285587      195.23725
Averages over the last 251 of 501 rows, steps 11260000 to 11510000:
Volume Temp Press KinEng PotEng TotEng Density Xlo Ylo Zlo Xhi Yhi Zhi
167444 302.026 215.314 5400.8 -2354.85 3045.95 0.872881 0 0 0 29.2856 29.2856 195.237
Loop time of 2527.67 on 36 procs for 500000 steps with 6000 atoms

restart         1000000 restart_CO2.1 restart_CO2.2

write_data      CO2_cuboid.data
System init for write_data ...
PPPM initialization ...
  G vector (1/distance) = 0.26789157
  grid = 32 32 128
  stencil order = 5
  estimated absolute RMS force accuracy = 0.00040684454
  estimated relative force accuracy = 1.2252003e-06
  3d grid and FFT values/proc = 16150 4096
Generated 1 of 1 mixed pair_coeff terms from arithmetic mixing rule

quit
